Version 4.1
SHEET 1 1620 1140
WIRE -1296 -800 -1296 -832
WIRE -800 -800 -800 -832
WIRE -1296 -752 -1296 -800
WIRE -800 -752 -800 -800
WIRE 1184 -672 1184 -704
WIRE 1392 -656 1392 -688
WIRE 1184 -624 1184 -672
WIRE 1392 -608 1392 -656
WIRE -1296 -576 -1296 -672
WIRE -800 -576 -800 -672
WIRE 368 -560 352 -560
WIRE 352 -528 352 -560
WIRE 352 -480 352 -528
WIRE 1088 -464 1072 -464
WIRE -1280 -448 -1280 -480
WIRE -800 -448 -800 -480
WIRE 1184 -448 1184 -544
WIRE 1072 -432 1072 -464
WIRE 1392 -432 1392 -528
WIRE 160 -416 160 -432
WIRE 192 -416 160 -416
WIRE 272 -416 192 -416
WIRE 480 -416 432 -416
WIRE 512 -416 480 -416
WIRE -1280 -400 -1280 -448
WIRE -800 -400 -800 -448
WIRE -80 -384 -80 -400
WIRE 1072 -384 1072 -432
WIRE -80 -320 -80 -384
WIRE 992 -320 912 -320
WIRE 1216 -320 1152 -320
WIRE 352 -304 352 -352
WIRE 352 -288 352 -304
WIRE 368 -240 352 -240
WIRE -1280 -224 -1280 -320
WIRE -800 -224 -800 -320
WIRE 352 -208 352 -240
WIRE 1072 -208 1072 -256
WIRE 1072 -192 1072 -208
WIRE 352 -160 352 -208
WIRE -80 -144 -80 -240
WIRE 912 -112 912 -320
WIRE 992 -112 912 -112
WIRE 1216 -112 1216 -320
WIRE 1216 -112 1056 -112
WIRE 160 -96 160 -112
WIRE 208 -96 160 -96
WIRE 272 -96 208 -96
WIRE 480 -96 432 -96
WIRE 512 -96 480 -96
WIRE -1168 -64 -1168 -96
WIRE 64 -32 64 -48
WIRE -1168 -16 -1168 -64
WIRE 352 16 352 -32
WIRE 64 32 64 -32
WIRE 352 32 352 16
WIRE 576 32 544 32
WIRE 656 32 576 32
WIRE 1216 64 1216 -112
WIRE 1216 64 1104 64
WIRE 1248 64 1216 64
WIRE 1312 64 1248 64
WIRE 1104 80 1104 64
WIRE 1536 80 1472 80
WIRE 1584 80 1536 80
WIRE 736 96 736 32
WIRE 912 96 912 -112
WIRE 912 96 736 96
WIRE 944 96 912 96
WIRE 976 96 944 96
WIRE 1312 96 1312 64
WIRE 1344 96 1312 96
WIRE 912 128 736 128
WIRE 944 128 912 128
WIRE 976 128 944 128
WIRE 1344 128 1312 128
WIRE 1552 144 1472 144
WIRE 1584 144 1552 144
WIRE -1168 160 -1168 64
WIRE 1104 160 1104 144
WIRE 1216 160 1104 160
WIRE 1232 160 1216 160
WIRE 1312 160 1312 128
WIRE 1312 160 1232 160
WIRE 512 192 464 192
WIRE 656 192 512 192
WIRE 736 192 736 128
WIRE 64 208 64 112
WIRE -1264 256 -1264 224
WIRE -1264 304 -1264 256
WIRE 752 304 736 304
WIRE 912 320 912 128
WIRE 1008 320 912 320
WIRE 1216 320 1216 160
WIRE 1216 320 1072 320
WIRE 736 336 736 304
WIRE 432 368 416 368
WIRE 1088 368 1072 368
WIRE 736 384 736 336
WIRE 416 400 416 368
WIRE 1072 400 1072 368
WIRE 64 416 64 368
WIRE 64 448 64 416
WIRE 416 448 416 400
WIRE 608 448 592 448
WIRE 656 448 608 448
WIRE 848 448 816 448
WIRE 880 448 848 448
WIRE 1072 448 1072 400
WIRE -1264 480 -1264 384
WIRE 224 512 224 496
WIRE 272 512 224 512
WIRE 336 512 272 512
WIRE 544 512 496 512
WIRE 576 512 544 512
WIRE 912 512 912 320
WIRE 992 512 912 512
WIRE 1216 512 1216 320
WIRE 1216 512 1152 512
WIRE 736 560 736 512
WIRE 736 576 736 560
WIRE 64 624 64 528
WIRE 416 624 416 576
WIRE 1072 624 1072 576
WIRE 416 640 416 624
WIRE 1072 640 1072 624
WIRE 448 720 432 720
WIRE 432 752 432 720
WIRE 432 800 432 752
WIRE 224 864 224 848
WIRE 272 864 224 864
WIRE 352 864 272 864
WIRE 576 864 512 864
WIRE 624 864 576 864
WIRE 624 880 624 864
WIRE 48 912 48 864
WIRE 48 944 48 912
WIRE 432 976 432 928
WIRE 432 992 432 976
WIRE 48 1120 48 1024
FLAG 1392 -432 0
FLAG 1392 -656 vdd1
FLAG 1184 -448 0
FLAG 1184 -672 vss1
FLAG 1248 64 voutp1
FLAG 1232 160 voutn1
FLAG -1168 160 0
FLAG -1168 -64 vres
FLAG 1072 -432 vres
FLAG 1072 -208 vresb
FLAG 1072 400 vres
FLAG 1072 624 vresb
FLAG 64 208 0
FLAG 64 624 0
FLAG 64 416 vp_in
FLAG 64 -32 vn_in
FLAG 576 32 vn
FLAG 512 192 vp
FLAG 416 400 vch
FLAG 416 624 vch_b
FLAG 432 752 vdch
FLAG 432 976 vdch_b
FLAG 576 864 vp
FLAG 544 512 vp
FLAG 48 1120 0
FLAG 48 912 vp_ref
FLAG -80 -144 0
FLAG -80 -384 vn_ref
FLAG 352 -528 vdch
FLAG 352 -304 vdch_b
FLAG 480 -416 vn
FLAG 352 -208 vch
FLAG 352 16 vch_b
FLAG 480 -96 vn
FLAG 208 -96 vn_in
FLAG 192 -416 vn_ref
FLAG 272 512 vp_in
FLAG 272 864 vp_ref
FLAG -800 -224 0
FLAG -800 -448 vch
FLAG -1280 -224 0
FLAG -1280 -448 vch_b
FLAG -800 -576 0
FLAG -800 -800 vdch
FLAG -1296 -576 0
FLAG -1296 -800 vdch_b
FLAG -1264 480 0
FLAG -1264 256 vresb
FLAG 1536 80 vcomp
FLAG 1552 144 vcomp_b
FLAG 736 336 vres
FLAG 736 560 vresb
FLAG 944 96 vin_n
FLAG 608 448 vin_n
FLAG 848 448 vin_p
FLAG 944 128 vin_p
DATAFLAG 864 96 ""
DATAFLAG 912 0 ""
DATAFLAG 912 192 ""
DATAFLAG 768 96 ""
DATAFLAG 784 128 ""
DATAFLAG 912 -32 ""
SYMBOL voltage 1392 -624 R0
WINDOW 123 0 0 Left 0
WINDOW 39 0 0 Left 0
SYMATTR InstName V1
SYMATTR Value 1.2
SYMBOL voltage 1184 -640 R0
WINDOW 123 0 0 Left 0
WINDOW 39 0 0 Left 0
SYMATTR InstName V2
SYMATTR Value 0
SYMBOL voltage -1168 -32 R0
WINDOW 123 24 124 Left 2
WINDOW 39 0 0 Left 0
SYMATTR Value2 AC 1 0
SYMATTR InstName V3
SYMATTR Value PULSE(0 1.2 1u 0.1u 0.1u 1u 20u)
SYMBOL cap 1056 -128 R90
WINDOW 0 0 32 VBottom 2
WINDOW 3 32 32 VTop 2
SYMATTR InstName C1
SYMATTR Value 4p
SYMBOL cap 1072 304 R90
WINDOW 0 0 32 VBottom 2
WINDOW 3 32 32 VTop 2
SYMATTR InstName C2
SYMATTR Value 4p
SYMBOL res 752 176 R90
WINDOW 0 0 56 VBottom 2
WINDOW 3 32 56 VTop 2
SYMATTR InstName R1
SYMATTR Value 0.25Meg
SYMBOL res 752 16 R90
WINDOW 0 0 56 VBottom 2
WINDOW 3 32 56 VTop 2
SYMATTR InstName R2
SYMATTR Value 0.25Meg
SYMBOL TG_Switch 1072 -320 R0
SYMATTR InstName X1
SYMBOL TG_Switch 1072 512 R0
SYMATTR InstName X2
SYMBOL voltage 64 16 R0
WINDOW 123 24 124 Left 2
WINDOW 39 0 0 Left 0
SYMATTR Value2 AC 0 0
SYMATTR InstName V4
SYMATTR Value 0.9
SYMBOL voltage 64 432 R0
WINDOW 123 24 124 Left 2
WINDOW 39 0 0 Left 0
SYMATTR Value2 AC 0 0
SYMATTR InstName V5
SYMATTR Value 0.3
SYMBOL TG_Switch 416 512 R0
SYMATTR InstName X3
SYMBOL TG_Switch 432 864 R0
SYMATTR InstName X4
SYMBOL voltage 48 928 R0
WINDOW 123 24 124 Left 2
WINDOW 39 0 0 Left 0
SYMATTR Value2 AC 0 0
SYMATTR InstName V6
SYMATTR Value 0.9
SYMBOL voltage -80 -336 R0
WINDOW 123 24 124 Left 2
WINDOW 39 0 0 Left 0
SYMATTR Value2 AC 0 0
SYMATTR InstName V7
SYMATTR Value 0.3
SYMBOL TG_Switch 352 -416 R0
SYMATTR InstName X5
SYMBOL TG_Switch 352 -96 R0
SYMATTR InstName X6
SYMBOL voltage -800 -416 R0
WINDOW 123 24 124 Left 2
WINDOW 39 0 0 Left 0
SYMATTR Value2 AC 1 0
SYMATTR InstName V8
SYMATTR Value PULSE(0 1.2 2u 0.1u 0.1u 1u 20u)
SYMBOL voltage -800 -768 R0
WINDOW 123 24 124 Left 2
WINDOW 39 0 0 Left 0
SYMATTR Value2 AC 1 0
SYMATTR InstName V10
SYMATTR Value PULSE(0 1.2 3u 0.1u 0.1u 8u 20u)
SYMBOL voltage -1296 -768 R0
WINDOW 123 24 124 Left 2
WINDOW 39 0 0 Left 0
SYMATTR Value2 AC 1 0
SYMATTR InstName V11
SYMATTR Value PULSE(1.2 0 3u 0.1u 0.1u 8u 20u)
SYMBOL FC_OTA_small_input 1072 112 R0
SYMATTR InstName X7
SYMBOL voltage -1264 288 R0
WINDOW 123 24 124 Left 2
WINDOW 39 0 0 Left 0
SYMATTR Value2 AC 1 0
SYMATTR InstName V12
SYMATTR Value PULSE(1.2 0 1u 0.1u 0.1u 1u 20u)
SYMBOL voltage -1280 -416 R0
WINDOW 123 24 124 Left 2
WINDOW 39 0 0 Left 0
SYMATTR Value2 AC 1 0
SYMATTR InstName V9
SYMATTR Value PULSE(1.2 0 2u 0.1u 0.1u 1u 20u)
SYMBOL FC_OTA_small_input 1440 112 R0
SYMATTR InstName X8
SYMBOL TG_Switch 736 448 R0
SYMATTR InstName X9
TEXT 688 -664 Left 2 !.include 65nm_bulk.txt
TEXT 656 -624 Left 2 !.OPTIONS ALLOW_AMBIGUOUS_MODELS
TEXT 680 -576 Left 2 ;.op
TEXT 680 -536 Left 2 ;.ac dec 10 1 10G
TEXT 680 -504 Left 2 !.tran 0 5u 0 0.01u
