Version 4.1
SHEET 1 1700 1592
WIRE -320 -256 -320 -272
WIRE -128 -256 -128 -272
WIRE -320 -240 -320 -256
WIRE -128 -240 -128 -256
WIRE 464 -240 464 -256
WIRE 656 -240 656 -256
WIRE 464 -224 464 -240
WIRE 656 -224 656 -240
WIRE 400 -192 384 -192
WIRE 416 -192 400 -192
WIRE 528 -192 512 -192
WIRE 544 -192 528 -192
WIRE 592 -192 576 -192
WIRE 608 -192 592 -192
WIRE 720 -192 704 -192
WIRE 736 -192 720 -192
WIRE 464 -144 464 -160
WIRE 656 -144 656 -160
WIRE 464 -128 464 -144
WIRE 656 -128 656 -144
WIRE -320 -112 -320 -128
WIRE -128 -112 -128 -128
WIRE -320 -96 -320 -112
WIRE -128 -96 -128 -112
WIRE 464 -80 464 -96
WIRE 656 -80 656 -96
WIRE 464 -64 464 -80
WIRE 656 -64 656 -80
WIRE 400 -32 384 -32
WIRE 416 -32 400 -32
WIRE 528 -32 512 -32
WIRE 544 -32 528 -32
WIRE 592 -32 576 -32
WIRE 608 -32 592 -32
WIRE 720 -32 704 -32
WIRE 736 -32 720 -32
WIRE 464 16 464 0
WIRE 656 16 656 0
WIRE -320 32 -320 16
WIRE -128 32 -128 16
WIRE 464 32 464 16
WIRE 656 32 656 16
WIRE -320 48 -320 32
WIRE -128 48 -128 32
WIRE 432 96 432 80
WIRE 720 96 720 80
WIRE 432 112 432 96
WIRE 720 112 720 96
WIRE 384 144 336 144
WIRE 528 144 480 144
WIRE 672 144 624 144
WIRE 816 144 768 144
WIRE -320 176 -320 160
WIRE -128 176 -128 160
WIRE -320 192 -320 176
WIRE -128 192 -128 176
WIRE 432 192 432 176
WIRE 720 192 720 176
WIRE 432 208 432 192
WIRE 720 208 720 192
WIRE 336 240 336 144
WIRE 400 240 336 240
WIRE 528 240 528 144
WIRE 528 240 464 240
WIRE 624 240 624 144
WIRE 688 240 624 240
WIRE 816 240 816 144
WIRE 816 240 752 240
WIRE 80 288 64 288
WIRE 96 288 80 288
WIRE 208 288 176 288
WIRE -320 320 -320 304
WIRE -128 320 -128 304
WIRE -320 336 -320 320
WIRE -128 336 -128 320
WIRE 528 336 528 240
WIRE 528 336 432 336
WIRE 576 336 528 336
WIRE 816 336 816 240
WIRE 816 336 720 336
WIRE 832 336 816 336
WIRE 208 352 208 288
WIRE 336 352 336 240
WIRE 336 352 208 352
WIRE 368 352 336 352
WIRE 576 352 576 336
WIRE 624 352 624 240
WIRE 624 352 576 352
WIRE 656 352 624 352
WIRE 336 384 208 384
WIRE 368 384 336 384
WIRE 624 384 576 384
WIRE 656 384 624 384
WIRE 528 400 432 400
WIRE 576 400 576 384
WIRE 576 400 528 400
WIRE 816 400 720 400
WIRE 832 400 816 400
WIRE 80 448 64 448
WIRE 96 448 80 448
WIRE 208 448 208 384
WIRE 208 448 176 448
WIRE -320 464 -320 448
WIRE -128 464 -128 448
WIRE -320 480 -320 464
WIRE -128 480 -128 464
WIRE 336 496 336 384
WIRE 400 496 336 496
WIRE 528 496 528 400
WIRE 528 496 464 496
WIRE 624 496 624 384
WIRE 688 496 624 496
WIRE 816 496 816 400
WIRE 816 496 752 496
WIRE 432 544 432 528
WIRE 720 544 720 528
WIRE 432 560 432 544
WIRE 720 560 720 544
WIRE 336 592 336 496
WIRE 384 592 336 592
WIRE 528 592 528 496
WIRE 528 592 480 592
WIRE 624 592 624 496
WIRE 672 592 624 592
WIRE 816 592 816 496
WIRE 816 592 768 592
WIRE 432 640 432 624
WIRE 720 640 720 624
WIRE 432 656 432 640
WIRE 720 656 720 640
WIRE -400 848 -448 848
WIRE -336 896 -352 896
WIRE -144 896 -144 816
WIRE -144 896 -176 896
WIRE -112 896 -128 896
WIRE 80 896 80 816
WIRE 80 896 48 896
WIRE 112 896 96 896
WIRE 304 896 304 816
WIRE 304 896 272 896
WIRE 336 896 320 896
WIRE 528 896 528 816
WIRE 528 896 496 896
WIRE 560 896 544 896
WIRE 752 896 752 816
WIRE 752 896 720 896
WIRE 784 896 768 896
WIRE 976 896 976 816
WIRE 976 896 944 896
WIRE 1008 896 992 896
WIRE 1200 896 1200 816
WIRE 1200 896 1168 896
WIRE 1424 896 1424 816
WIRE 1424 896 1392 896
WIRE -400 944 -400 848
WIRE -336 944 -400 944
WIRE -144 944 -160 944
WIRE -112 944 -144 944
WIRE 80 944 64 944
WIRE 112 944 80 944
WIRE 304 944 288 944
WIRE 336 944 304 944
WIRE 528 944 512 944
WIRE 560 944 528 944
WIRE 752 944 736 944
WIRE 784 944 752 944
WIRE 976 944 960 944
WIRE 1008 944 976 944
WIRE 1200 944 1184 944
WIRE 1232 944 1200 944
WIRE 1424 944 1408 944
WIRE -352 1008 -352 896
WIRE -144 1008 -144 944
WIRE -144 1008 -352 1008
WIRE -128 1008 -128 896
WIRE 80 1008 80 944
WIRE 80 1008 -128 1008
WIRE 96 1008 96 896
WIRE 304 1008 304 944
WIRE 304 1008 96 1008
WIRE 320 1008 320 896
WIRE 528 1008 528 944
WIRE 528 1008 320 1008
WIRE 544 1008 544 896
WIRE 752 1008 752 944
WIRE 752 1008 544 1008
WIRE 768 1008 768 896
WIRE 976 1008 976 944
WIRE 976 1008 768 1008
WIRE 992 1008 992 896
WIRE 1200 1008 1200 944
WIRE 1200 1008 992 1008
WIRE 1424 1008 1424 944
FLAG -128 560 0
FLAG -128 464 vdd1
FLAG -320 560 0
FLAG -320 464 vss1
FLAG -320 128 0
FLAG -320 32 vres
FLAG 432 96 vres
FLAG 432 192 vresb
FLAG 432 544 vres
FLAG 432 640 vresb
FLAG -128 272 0
FLAG -320 416 0
FLAG -320 320 vp_in
FLAG -128 176 vn_in
FLAG 80 288 vn
FLAG 80 448 vp
FLAG 464 -80 vch
FLAG 464 16 vch_b
FLAG 656 -80 vdch
FLAG 656 16 vdch_b
FLAG 720 -32 vp
FLAG 528 -32 vp
FLAG -128 416 0
FLAG -128 320 vp_ref
FLAG -320 272 0
FLAG -320 176 vn_ref
FLAG 464 -240 vdch
FLAG 464 -144 vdch_b
FLAG 528 -192 vn
FLAG 656 -240 vch
FLAG 656 -144 vch_b
FLAG 720 -192 vn
FLAG 592 -192 vn_in
FLAG 400 -192 vn_ref
FLAG 400 -32 vp_in
FLAG 592 -32 vp_ref
FLAG -128 -16 0
FLAG -128 -112 vch
FLAG -320 -16 0
FLAG -320 -112 vch_b
FLAG -128 -160 0
FLAG -128 -256 vdch
FLAG -320 -160 0
FLAG -320 -256 vdch_b
FLAG -128 128 0
FLAG -128 32 vresb
FLAG 720 96 vres
FLAG 720 192 vresb
FLAG 720 544 vres
FLAG 720 640 vresb
FLAG -480 1040 0
FLAG -480 960 CLK
FLAG 832 336 TRIG
FLAG -512 896 CLK
FLAG -512 832 TRIG
DATAFLAG 288 352 ""
DATAFLAG 336 448 ""
DATAFLAG 576 352 ""
DATAFLAG 624 448 ""
SYMBOL voltage -128 464 R0
WINDOW 123 0 0 Left 0
WINDOW 39 0 0 Left 0
SYMATTR InstName V1
SYMATTR Value 1.2
SYMBOL voltage -320 464 R0
WINDOW 123 0 0 Left 0
WINDOW 39 0 0 Left 0
SYMATTR InstName V2
SYMATTR Value 0
SYMBOL voltage -320 32 R0
WINDOW 123 24 124 Left 2
WINDOW 39 0 0 Left 0
SYMATTR Value2 AC 1 0
SYMATTR InstName V5
SYMATTR Value PULSE(0 1.2 5u 0.1u 0.1u 1u 20u)
SYMBOL cap 464 224 R90
WINDOW 0 0 32 VBottom 2
WINDOW 3 32 32 VTop 2
SYMATTR InstName C5
SYMATTR Value 2p
SYMBOL cap 464 480 R90
WINDOW 0 0 32 VBottom 2
WINDOW 3 32 32 VTop 2
SYMATTR InstName C6
SYMATTR Value 2p
SYMBOL res 192 432 R90
WINDOW 0 0 56 VBottom 2
WINDOW 3 32 56 VTop 2
SYMATTR InstName R3
SYMATTR Value 2.5Meg
SYMBOL res 192 272 R90
WINDOW 0 0 56 VBottom 2
WINDOW 3 32 56 VTop 2
SYMATTR InstName R4
SYMATTR Value 2.5Meg
SYMBOL TG_Switch 432 144 R0
SYMATTR InstName X2
SYMBOL TG_Switch 432 592 R0
SYMATTR InstName X3
SYMBOL voltage -128 176 R0
WINDOW 123 24 124 Left 2
WINDOW 39 0 0 Left 0
SYMATTR Value2 AC 0 0
SYMATTR InstName V9
SYMATTR Value 0.8
SYMBOL voltage -320 320 R0
WINDOW 123 24 124 Left 2
WINDOW 39 0 0 Left 0
SYMATTR Value2 AC 0 0
SYMATTR InstName V10
SYMATTR Value 0.4
SYMBOL TG_Switch 464 -32 R0
SYMATTR InstName X4
SYMBOL TG_Switch 656 -32 R0
SYMATTR InstName X5
SYMBOL voltage -128 320 R0
WINDOW 123 24 124 Left 2
WINDOW 39 0 0 Left 0
SYMATTR Value2 AC 0 0
SYMATTR InstName V3
SYMATTR Value 0.9
SYMBOL voltage -320 176 R0
WINDOW 123 24 124 Left 2
WINDOW 39 0 0 Left 0
SYMATTR Value2 AC 0 0
SYMATTR InstName V4
SYMATTR Value 0.3
SYMBOL TG_Switch 464 -192 R0
SYMATTR InstName X6
SYMBOL TG_Switch 656 -192 R0
SYMATTR InstName X7
SYMBOL voltage -128 -112 R0
WINDOW 123 24 124 Left 2
WINDOW 39 0 0 Left 0
SYMATTR Value2 AC 1 0
SYMATTR InstName V7
SYMATTR Value PULSE(0 1.2 6u 0.1u 0.1u 5u 20u)
SYMBOL voltage -320 -112 R0
WINDOW 123 24 124 Left 2
WINDOW 39 0 0 Left 0
SYMATTR Value2 AC 1 0
SYMATTR InstName V8
SYMATTR Value PULSE(1.2 0 6u 0.1u 0.1u 5u 20u)
SYMBOL voltage -128 -256 R0
WINDOW 123 24 124 Left 2
WINDOW 39 0 0 Left 0
SYMATTR Value2 AC 1 0
SYMATTR InstName V11
SYMATTR Value PULSE(0 1.2 11u 0.1u 0.1u 8u 20u)
SYMBOL voltage -320 -256 R0
WINDOW 123 24 124 Left 2
WINDOW 39 0 0 Left 0
SYMATTR Value2 AC 1 0
SYMATTR InstName V12
SYMATTR Value PULSE(1.2 0 11u 0.1u 0.1u 8u 20u)
SYMBOL voltage -128 32 R0
WINDOW 123 24 124 Left 2
WINDOW 39 0 0 Left 0
SYMATTR Value2 AC 1 0
SYMATTR InstName V6
SYMATTR Value PULSE(1.2 0 5u 0.1u 0.1u 1u 20u)
SYMBOL FC_OTA_small_input 400 368 R0
SYMATTR InstName X8
SYMBOL cap 752 224 R90
WINDOW 0 0 32 VBottom 2
WINDOW 3 32 32 VTop 2
SYMATTR InstName C1
SYMATTR Value 2p
SYMBOL cap 752 480 R90
WINDOW 0 0 32 VBottom 2
WINDOW 3 32 32 VTop 2
SYMATTR InstName C2
SYMATTR Value 2p
SYMBOL TG_Switch 720 144 R0
SYMATTR InstName X1
SYMBOL TG_Switch 720 592 R0
SYMATTR InstName X9
SYMBOL FC_OTA_small_input 688 368 R0
SYMATTR InstName X10
SYMBOL Digital\\dflop -256 848 R0
SYMATTR InstName A1
SYMBOL Digital\\dflop -32 848 R0
SYMATTR InstName A2
SYMBOL Digital\\dflop 192 848 R0
SYMATTR InstName A3
SYMBOL Digital\\dflop 416 848 R0
SYMATTR InstName A4
SYMBOL Digital\\dflop 640 848 R0
SYMATTR InstName A5
SYMBOL Digital\\dflop 864 848 R0
SYMATTR InstName A6
SYMBOL Digital\\dflop 1088 848 R0
SYMATTR InstName A7
SYMBOL voltage -480 944 R0
WINDOW 123 0 0 Left 0
WINDOW 39 0 0 Left 0
SYMATTR InstName V13
SYMATTR Value PULSE(0 1 6.8u 0.1n 0.1n 35n 70n)
SYMBOL Digital\\and -480 800 R0
SYMATTR InstName A9
TEXT 144 -248 Left 2 !.include 65nm_bulk.txt
TEXT 112 -208 Left 2 !.OPTIONS ALLOW_AMBIGUOUS_MODELS
TEXT 136 -160 Left 2 ;.op
TEXT 136 -120 Left 2 ;.ac dec 10 1 10G
TEXT 136 -88 Left 2 !.tran 0 20u 0 1n
