Version 4.1
SHEET 1 1620 1140
WIRE 464 -176 464 -192
WIRE 928 -176 928 -192
WIRE 464 -160 464 -176
WIRE 928 -160 928 -176
WIRE 400 -128 384 -128
WIRE 416 -128 400 -128
WIRE 528 -128 512 -128
WIRE 544 -128 528 -128
WIRE 880 -128 784 -128
WIRE 1056 -128 976 -128
WIRE 464 -80 464 -96
WIRE 928 -80 928 -96
WIRE 464 -64 464 -80
WIRE 928 -64 928 -80
WIRE 464 -16 464 -32
WIRE 784 -16 784 -128
WIRE 896 -16 784 -16
WIRE 1056 -16 1056 -128
WIRE 1056 -16 960 -16
WIRE 464 0 464 -16
WIRE 400 32 384 32
WIRE 416 32 400 32
WIRE 528 32 512 32
WIRE 544 32 528 32
WIRE 624 32 608 32
WIRE 640 32 624 32
WIRE 1056 64 1056 -16
WIRE 1056 64 976 64
WIRE 1088 64 1056 64
WIRE 1152 64 1088 64
WIRE 464 80 464 64
WIRE 976 80 976 64
WIRE 1376 80 1312 80
WIRE 1424 80 1376 80
WIRE 464 96 464 80
WIRE 720 96 720 32
WIRE 784 96 784 -16
WIRE 784 96 720 96
WIRE 816 96 784 96
WIRE 848 96 816 96
WIRE 1152 96 1152 64
WIRE 1184 96 1152 96
WIRE 784 128 720 128
WIRE 816 128 784 128
WIRE 848 128 816 128
WIRE 1184 128 1152 128
WIRE 464 144 464 128
WIRE 1392 144 1312 144
WIRE 1424 144 1392 144
WIRE 464 160 464 144
WIRE 976 160 976 144
WIRE 1056 160 976 160
WIRE 1072 160 1056 160
WIRE 1152 160 1152 128
WIRE 1152 160 1072 160
WIRE 400 192 384 192
WIRE 416 192 400 192
WIRE 528 192 512 192
WIRE 544 192 528 192
WIRE 624 192 608 192
WIRE 640 192 624 192
WIRE 720 192 720 128
WIRE 784 224 784 128
WIRE 896 224 784 224
WIRE 1056 224 1056 160
WIRE 1056 224 960 224
WIRE 464 240 464 224
WIRE 464 256 464 240
WIRE 928 288 928 272
WIRE 464 304 464 288
WIRE 928 304 928 288
WIRE 464 320 464 304
WIRE 784 336 784 224
WIRE 880 336 784 336
WIRE 1056 336 1056 224
WIRE 1056 336 976 336
WIRE 400 352 384 352
WIRE 416 352 400 352
WIRE 528 352 512 352
WIRE 544 352 528 352
WIRE 928 384 928 368
WIRE 464 400 464 384
WIRE 928 400 928 384
WIRE 464 416 464 400
WIRE 464 464 464 448
WIRE 464 480 464 464
WIRE 400 512 384 512
WIRE 416 512 400 512
WIRE 528 512 512 512
WIRE 544 512 528 512
WIRE 464 560 464 544
WIRE 464 576 464 560
FLAG 144 288 0
FLAG 144 208 vdd1
FLAG -48 288 0
FLAG -48 208 vss1
FLAG 1088 64 voutp1
FLAG 1072 160 voutn1
FLAG -48 160 0
FLAG -48 80 vres
FLAG 928 -176 vres
FLAG 928 -80 vresb
FLAG 928 288 vres
FLAG 928 384 vresb
FLAG 144 416 0
FLAG -48 544 0
FLAG -48 464 vp_in
FLAG 144 336 vn_in
FLAG 624 32 vn
FLAG 624 192 vp
FLAG 464 144 vch
FLAG 464 240 vch_b
FLAG 464 304 vdch
FLAG 464 400 vdch_b
FLAG 528 352 vp
FLAG 528 192 vp
FLAG 144 544 0
FLAG 144 464 vp_ref
FLAG -48 416 0
FLAG -48 336 vn_ref
FLAG 464 -176 vdch
FLAG 464 -80 vdch_b
FLAG 528 -128 vn
FLAG 464 -16 vch
FLAG 464 80 vch_b
FLAG 528 32 vn
FLAG 400 32 vn_in
FLAG 400 -128 vn_ref
FLAG 400 192 vp_in
FLAG 400 352 vp_ref
FLAG 144 32 0
FLAG 144 -48 vch
FLAG -48 32 0
FLAG -48 -48 vch_b
FLAG 144 -96 0
FLAG 144 -176 vdch
FLAG -48 -96 0
FLAG -48 -176 vdch_b
FLAG 144 160 0
FLAG 144 80 vresb
FLAG 1376 80 vcomp
FLAG 1392 144 vcomp_b
FLAG 464 464 vres
FLAG 464 560 vresb
FLAG 816 96 vin_n
FLAG 400 512 vin_n
FLAG 528 512 vin_p
FLAG 816 128 vin_p
DATAFLAG 784 48 ""
DATAFLAG 784 192 ""
DATAFLAG 752 96 ""
DATAFLAG 752 128 ""
SYMBOL voltage 144 192 R0
WINDOW 123 0 0 Left 0
WINDOW 39 0 0 Left 0
SYMATTR InstName V1
SYMATTR Value 1.2
SYMBOL voltage -48 192 R0
WINDOW 123 0 0 Left 0
WINDOW 39 0 0 Left 0
SYMATTR InstName V2
SYMATTR Value 0
SYMBOL voltage -48 64 R0
WINDOW 123 24 124 Left 2
WINDOW 39 0 0 Left 0
SYMATTR Value2 AC 1 0
SYMATTR InstName V3
SYMATTR Value PULSE(0 1.2 1u 0.1u 0.1u 1u 20u)
SYMBOL cap 960 -32 R90
WINDOW 0 0 32 VBottom 2
WINDOW 3 32 32 VTop 2
SYMATTR InstName C1
SYMATTR Value 4p
SYMBOL cap 960 208 R90
WINDOW 0 0 32 VBottom 2
WINDOW 3 32 32 VTop 2
SYMATTR InstName C2
SYMATTR Value 4p
SYMBOL res 736 176 R90
WINDOW 0 0 56 VBottom 2
WINDOW 3 32 56 VTop 2
SYMATTR InstName R1
SYMATTR Value 0.25Meg
SYMBOL res 736 16 R90
WINDOW 0 0 56 VBottom 2
WINDOW 3 32 56 VTop 2
SYMATTR InstName R2
SYMATTR Value 0.25Meg
SYMBOL TG_Switch 928 -128 R0
SYMATTR InstName X1
SYMBOL TG_Switch 928 336 R0
SYMATTR InstName X2
SYMBOL voltage 144 320 R0
WINDOW 123 24 124 Left 2
WINDOW 39 0 0 Left 0
SYMATTR Value2 AC 0 0
SYMATTR InstName V4
SYMATTR Value 0.9
SYMBOL voltage -48 448 R0
WINDOW 123 24 124 Left 2
WINDOW 39 0 0 Left 0
SYMATTR Value2 AC 0 0
SYMATTR InstName V5
SYMATTR Value 0.3
SYMBOL TG_Switch 464 192 R0
SYMATTR InstName X3
SYMBOL TG_Switch 464 352 R0
SYMATTR InstName X4
SYMBOL voltage 144 448 R0
WINDOW 123 24 124 Left 2
WINDOW 39 0 0 Left 0
SYMATTR Value2 AC 0 0
SYMATTR InstName V6
SYMATTR Value 0.9
SYMBOL voltage -48 320 R0
WINDOW 123 24 124 Left 2
WINDOW 39 0 0 Left 0
SYMATTR Value2 AC 0 0
SYMATTR InstName V7
SYMATTR Value 0.3
SYMBOL TG_Switch 464 -128 R0
SYMATTR InstName X5
SYMBOL TG_Switch 464 32 R0
SYMATTR InstName X6
SYMBOL voltage 144 -64 R0
WINDOW 123 24 124 Left 2
WINDOW 39 0 0 Left 0
SYMATTR Value2 AC 1 0
SYMATTR InstName V8
SYMATTR Value PULSE(0 1.2 2u 0.1u 0.1u 1u 20u)
SYMBOL voltage 144 -192 R0
WINDOW 123 24 124 Left 2
WINDOW 39 0 0 Left 0
SYMATTR Value2 AC 1 0
SYMATTR InstName V10
SYMATTR Value PULSE(0 1.2 3u 0.1u 0.1u 8u 20u)
SYMBOL voltage -48 -192 R0
WINDOW 123 24 124 Left 2
WINDOW 39 0 0 Left 0
SYMATTR Value2 AC 1 0
SYMATTR InstName V11
SYMATTR Value PULSE(1.2 0 3u 0.1u 0.1u 8u 20u)
SYMBOL FC_OTA_small_input 944 112 R0
SYMATTR InstName X7
SYMBOL voltage 144 64 R0
WINDOW 123 24 124 Left 2
WINDOW 39 0 0 Left 0
SYMATTR Value2 AC 1 0
SYMATTR InstName V12
SYMATTR Value PULSE(1.2 0 1u 0.1u 0.1u 1u 20u)
SYMBOL voltage -48 -64 R0
WINDOW 123 24 124 Left 2
WINDOW 39 0 0 Left 0
SYMATTR Value2 AC 1 0
SYMATTR InstName V9
SYMATTR Value PULSE(1.2 0 2u 0.1u 0.1u 1u 20u)
SYMBOL FC_OTA_small_input 1280 112 R0
SYMATTR InstName X8
SYMBOL TG_Switch 464 512 R0
SYMATTR InstName X9
TEXT 728 440 Left 2 !.include 65nm_bulk.txt
TEXT 696 480 Left 2 !.OPTIONS ALLOW_AMBIGUOUS_MODELS
TEXT 720 528 Left 2 ;.op
TEXT 720 568 Left 2 ;.ac dec 10 1 10G
TEXT 720 600 Left 2 !.tran 0 5u 0 0.01u
